tests/src/test/resources/files/cases/3_objective_functions/3_1_secure_flow/TestCase4Nodes.uct
##C 2007.05.01
##N
##ZBE
BBE1AA1  BE1          0 2 400.00 1500.00 0.00000 0.00000 0.00000 9000.00 -9000.0 9000.00 -9000.0
##ZDE
DDE1AA1  DE1          0 2 400.00 0.00000 0.00000 0.00000 0.00000 9000.00 -9000.0 9000.00 -9000.0
##ZFR
FFR1AA1  FR1          0 2 400.00 0.00000 0.00000 0.00000 0.00000 9000.00 -9000.0 9000.00 -9000.0
##ZNL
NNL1AA1  NL1          0 2 400.00 0.00000 0.00000 -1500.0 0.00000 9000.00 -9000.0 9000.00 -9000.0
##L
BBE1AA1  FFR1AA1  1 0 0.0000 10.000 0.000000   1200
BBE1AA1  FFR1AA1  2 8 0.0000 10.000 0.000000   5000
FFR1AA1  DDE1AA1  1 0 0.0000 10.000 0.000000   5000
DDE1AA1  NNL1AA1  1 0 0.0000 10.000 0.000000   5000
NNL1AA1  BBE1AA1  1 8 0.0000 10.000 0.000000   5000
##T
##R